.MODEL BC547A NPN(IS=1.533E-14 ISE=7.932E-16 ISC=8.305E-14 XTI=3 BF=178.7 BR=8.628 IKF=0.1216 IKR=0.1121 XTB=1.5 VAF=69.7 VAR=44.7 VJE=0.4209 VJC=0.2 RE=0.6395 RC=0.6508 RB=1 RBM=1 IRB=1E-06 CJE=1.61E-11 CJC=4.388p XCJC=0.6193 FC=0.7762 NF=1.002 NR=1.004 NE=1.436 NC=1.207 MJE=0.3071 MJC=0.2793 TF=4.995E-10 TR=1E-3 ITF=0.7021 VTF=3.523 XTF=139 EG=1.11 
